UK_based_nordic.m
mpc.version = '2';
mpc.baseMVA = 100.0;
mpc.baseKG=17286;
mpc.frequency1=50;
mpc.rocof1=1;
mpc.deltaf=1;


%% bus data
%	bus_i	type		Pd		Qd		  Gs	 Bs	   area		Vm	   Va		   baseKV	zone	  Vmax			 Vmin
mpc.bus = [
% Slack bus (largest generator: 4937 with 4476.97 MW)
	4937	3		0.0		0.0		0.0		0.0		1		1.0		0		380.0		1		1.10000		0.90000;

% PV buses (all other generator buses)
	1517	2		0.0		0.0		0.0		0.0		1		1.0		0		380.0		1		1.10000		0.90000;
	1523	2		0.0		0.0		0.0		0.0		1		1.0		0		380.0		1		1.10000		0.90000;
	1524	2		0.0		0.0		0.0		0.0		1		1.0		0		380.0		1		1.10000		0.90000;
	1535	2		0.0		0.0		0.0		0.0		1		1.0		0		380.0		1		1.10000		0.90000;
	1544	2		0.0		0.0		0.0		0.0		1		1.0		0		380.0		1		1.10000		0.90000;
	1547	2		0.0		0.0		0.0		0.0		1		1.0		0		380.0		1		1.10000		0.90000;
	1555	2		0.0		0.0		0.0		0.0		1		1.0		0		380.0		1		1.10000		0.90000;
	1559	2		0.0		0.0		0.0		0.0		1		1.0		0		380.0		1		1.10000		0.90000;
	1569	2		0.0		0.0		0.0		0.0		1		1.0		0		380.0		1		1.10000		0.90000;
	1571	2		0.0		0.0		0.0		0.0		1		1.0		0		380.0		1		1.10000		0.90000;
	1603	2		0.0		0.0		0.0		0.0		1		1.0		0		380.0		1		1.10000		0.90000;
	2457	2		0.0		0.0		0.0		0.0		1		1.0		0		380.0		1		1.10000		0.90000;
	2458	2		0.0		0.0		0.0		0.0		1		1.0		0		380.0		1		1.10000		0.90000;
	2460	2		0.0		0.0		0.0		0.0		1		1.0		0		380.0		1		1.10000		0.90000;
	4914	2		0.0		0.0		0.0		0.0		1		1.0		0		380.0		1		1.10000		0.90000;
	4915	2		0.0		0.0		0.0		0.0		1		1.0		0		380.0		1		1.10000		0.90000;
	4916	2		0.0		0.0		0.0		0.0		1		1.0		0		380.0		1		1.10000		0.90000;
	4917	2		0.0		0.0		0.0		0.0		1		1.0		0		380.0		1		1.10000		0.90000;
	4918	2		0.0		0.0		0.0		0.0		1		1.0		0		380.0		1		1.10000		0.90000;
	4919	2		0.0		0.0		0.0		0.0		1		1.0		0		380.0		1		1.10000		0.90000;
	4920	2		0.0		0.0		0.0		0.0		1		1.0		0		380.0		1		1.10000		0.90000;
	4921	2		0.0		0.0		0.0		0.0		1		1.0		0		380.0		1		1.10000		0.90000;
	4922	2		0.0		0.0		0.0		0.0		1		1.0		0		380.0		1		1.10000		0.90000;
	4923	2		0.0		0.0		0.0		0.0		1		1.0		0		380.0		1		1.10000		0.90000;
	4924	2		0.0		0.0		0.0		0.0		1		1.0		0		380.0		1		1.10000		0.90000;
	4925	2		0.0		0.0		0.0		0.0		1		1.0		0		380.0		1		1.10000		0.90000;
	4926	2		0.0		0.0		0.0		0.0		1		1.0		0		380.0		1		1.10000		0.90000;
	4927	2		0.0		0.0		0.0		0.0		1		1.0		0		380.0		1		1.10000		0.90000;
	4928	2		0.0		0.0		0.0		0.0		1		1.0		0		380.0		1		1.10000		0.90000;
	4929	2		0.0		0.0		0.0		0.0		1		1.0		0		380.0		1		1.10000		0.90000;
	4930	2		0.0		0.0		0.0		0.0		1		1.0		0		380.0		1		1.10000		0.90000;
	4931	2		0.0		0.0		0.0		0.0		1		1.0		0		380.0		1		1.10000		0.90000;
	4932	2		0.0		0.0		0.0		0.0		1		1.0		0		380.0		1		1.10000		0.90000;
	4933	2		0.0		0.0		0.0		0.0		1		1.0		0		380.0		1		1.10000		0.90000;
	4934	2		0.0		0.0		0.0		0.0		1		1.0		0		380.0		1		1.10000		0.90000;
	4935	2		0.0		0.0		0.0		0.0		1		1.0		0		380.0		1		1.10000		0.90000;
	4936	2		0.0		0.0		0.0		0.0		1		1.0		0		380.0		1		1.10000		0.90000;
	4938	2		0.0		0.0		0.0		0.0		1		1.0		0		380.0		1		1.10000		0.90000;
	4939	2		0.0		0.0		0.0		0.0		1		1.0		0		380.0		1		1.10000		0.90000;
	4940	2		0.0		0.0		0.0		0.0		1		1.0		0		380.0		1		1.10000		0.90000;
	4941	2		0.0		0.0		0.0		0.0		1		1.0		0		380.0		1		1.10000		0.90000;
	5476	2		0.0		0.0		0.0		0.0		1		1.0		0		380.0		1		1.10000		0.90000;
	5477	2		0.0		0.0		0.0		0.0		1		1.0		0		380.0		1		1.10000		0.90000;
	5478	2		0.0		0.0		0.0		0.0		1		1.0		0		380.0		1		1.10000		0.90000;
	5479	2		0.0		0.0		0.0		0.0		1		1.0		0		380.0		1		1.10000		0.90000;
	5480	2		0.0		0.0		0.0		0.0		1		1.0		0		380.0		1		1.10000		0.90000;
	5481	2		0.0		0.0		0.0		0.0		1		1.0		0		380.0		1		1.10000		0.90000;
	5483	2		0.0		0.0		0.0		0.0		1		1.0		0		380.0		1		1.10000		0.90000;
	5484	2		0.0		0.0		0.0		0.0		1		1.0		0		380.0		1		1.10000		0.90000;
	5485	2		0.0		0.0		0.0		0.0		1		1.0		0		380.0		1		1.10000		0.90000;
	5486	2		0.0		0.0		0.0		0.0		1		1.0		0		380.0		1		1.10000		0.90000;
	5487	2		0.0		0.0		0.0		0.0		1		1.0		0		380.0		1		1.10000		0.90000;
	5488	2		0.0		0.0		0.0		0.0		1		1.0		0		380.0		1		1.10000		0.90000;
	5489	2		0.0		0.0		0.0		0.0		1		1.0		0		380.0		1		1.10000		0.90000;
	5490	2		0.0		0.0		0.0		0.0		1		1.0		0		380.0		1		1.10000		0.90000;
	5493	2		0.0		0.0		0.0		0.0		1		1.0		0		380.0		1		1.10000		0.90000;
	5497	2		0.0		0.0		0.0		0.0		1		1.0		0		380.0		1		1.10000		0.90000;
    1519	2	0	0	0	0	1	1	0	380	1	1.1	0.9	;
    1520	2	0	0	0	0	1	1	0	380	1	1.1	0.9	;
    1522	2	0	0	0	0	1	1	0	380	1	1.1	0.9	;
    1525	2	0	0	0	0	1	1	0	380	1	1.1	0.9	;
    1526	2	0	0	0	0	1	1	0	380	1	1.1	0.9	;
    1527	2	0	0	0	0	1	1	0	380	1	1.1	0.9	;
    1528	2	0	0	0	0	1	1	0	380	1	1.1	0.9	;
    1529	2	0	0	0	0	1	1	0	380	1	1.1	0.9	;
    1530	2	0	0	0	0	1	1	0	380	1	1.1	0.9	;
    1531	2	0	0	0	0	1	1	0	380	1	1.1	0.9	;
    1532	2	0	0	0	0	1	1	0	380	1	1.1	0.9	;
    1533	2	0	0	0	0	1	1	0	380	1	1.1	0.9	;
    1534	2	0	0	0	0	1	1	0	380	1	1.1	0.9	;
    1536	2	0	0	0	0	1	1	0	380	1	1.1	0.9	;
    1537	2	0	0	0	0	1	1	0	380	1	1.1	0.9	;
    1540	2	0	0	0	0	1	1	0	380	1	1.1	0.9	;
    1541	2	0	0	0	0	1	1	0	380	1	1.1	0.9	;
    1542	2	0	0	0	0	1	1	0	380	1	1.1	0.9	;
    1546	2	0	0	0	0	1	1	0	380	1	1.1	0.9	;
    1548	2	0	0	0	0	1	1	0	380	1	1.1	0.9	;
    1549	2	0	0	0	0	1	1	0	380	1	1.1	0.9	;
    1550	2	0	0	0	0	1	1	0	380	1	1.1	0.9	;
    1551	2	0	0	0	0	1	1	0	380	1	1.1	0.9	;
    1552	2	0	0	0	0	1	1	0	380	1	1.1	0.9	;
    1553	2	0	0	0	0	1	1	0	380	1	1.1	0.9	;
    1554	2	0	0	0	0	1	1	0	380	1	1.1	0.9	;
    1556	2	0	0	0	0	1	1	0	380	1	1.1	0.9	;
    1557	2	0	0	0	0	1	1	0	380	1	1.1	0.9	;
    1558	2	0	0	0	0	1	1	0	380	1	1.1	0.9	;
    1560	2	0	0	0	0	1	1	0	380	1	1.1	0.9	;
    1561	2	0	0	0	0	1	1	0	380	1	1.1	0.9	;
    1562	2	0	0	0	0	1	1	0	380	1	1.1	0.9	;
    1563	2	0	0	0	0	1	1	0	380	1	1.1	0.9	;
    1564	2	0	0	0	0	1	1	0	380	1	1.1	0.9	;
    1565	2	0	0	0	0	1	1	0	380	1	1.1	0.9	;
    1568	2	0	0	0	0	1	1	0	380	1	1.1	0.9	;
    1570	2	0	0	0	0	1	1	0	380	1	1.1	0.9	;
    1572	2	0	0	0	0	1	1	0	380	1	1.1	0.9	;
    1573	2	0	0	0	0	1	1	0	380	1	1.1	0.9	;
    1574	2	0	0	0	0	1	1	0	380	1	1.1	0.9	;
    1575	2	0	0	0	0	1	1	0	380	1	1.1	0.9	;
    1576	2	0	0	0	0	1	1	0	380	1	1.1	0.9	;
    1577	2	0	0	0	0	1	1	0	380	1	1.1	0.9	;
    1578	2	0	0	0	0	1	1	0	380	1	1.1	0.9	;
    1579	2	0	0	0	0	1	1	0	380	1	1.1	0.9	;
    1580	2	0	0	0	0	1	1	0	380	1	1.1	0.9	;
    1581	2	0	0	0	0	1	1	0	380	1	1.1	0.9	;
    1582	2	0	0	0	0	1	1	0	380	1	1.1	0.9	;
    1583	2	0	0	0	0	1	1	0	380	1	1.1	0.9	;
    1584	2	0	0	0	0	1	1	0	380	1	1.1	0.9	;
    1586	2	0	0	0	0	1	1	0	380	1	1.1	0.9	;
    1589	2	0	0	0	0	1	1	0	380	1	1.1	0.9	;
    1590	2	0	0	0	0	1	1	0	380	1	1.1	0.9	;
    1591	2	0	0	0	0	1	1	0	380	1	1.1	0.9	;
    1592	2	0	0	0	0	1	1	0	380	1	1.1	0.9	;
    1593	2	0	0	0	0	1	1	0	380	1	1.1	0.9	;
    1594	2	0	0	0	0	1	1	0	380	1	1.1	0.9	;
    1595	2	0	0	0	0	1	1	0	380	1	1.1	0.9	;
    1596	2	0	0	0	0	1	1	0	380	1	1.1	0.9	;
    1597	2	0	0	0	0	1	1	0	380	1	1.1	0.9	;
    1598	2	0	0	0	0	1	1	0	380	1	1.1	0.9	;
    1600	2	0	0	0	0	1	1	0	380	1	1.1	0.9	;
    1601	2	0	0	0	0	1	1	0	380	1	1.1	0.9	;
    1602	2	0	0	0	0	1	1	0	380	1	1.1	0.9	;
    1604	2	0	0	0	0	1	1	0	380	1	1.1	0.9	;
    1605	2	0	0	0	0	1	1	0	380	1	1.1	0.9	;
    1606	2	0	0	0	0	1	1	0	380	1	1.1	0.9	;
    1610	2	0	0	0	0	1	1	0	380	1	1.1	0.9	;
    2456	2	0	0	0	0	1	1	0	380	1	1.1	0.9	;
    2459	2	0	0	0	0	1	1	0	380	1	1.1	0.9	;
    2461	2	0	0	0	0	1	1	0	380	1	1.1	0.9	;
    4913	2	0	0	0	0	1	1	0	380	1	1.1	0.9	;
    5475	2	0	0	0	0	1	1	0	380	1	1.1	0.9	;
    5482	2	0	0	0	0	1	1	0	380	1	1.1	0.9	;
    5491	2	0	0	0	0	1	1	0	380	1	1.1	0.9	;
    5492	2	0	0	0	0	1	1	0	380	1	1.1	0.9	;
    5494	2	0	0	0	0	1	1	0	380	1	1.1	0.9	;
    5495	2	0	0	0	0	1	1	0	380	1	1.1	0.9	;
    5496	2	0	0	0	0	1	1	0	380	1	1.1	0.9	;
    1609	2	0	0	0	0	1	1	0	380	1	1.1	0.9	;
    1517	2	0	0	0	0	1	1	0	380	1	1.1	0.9	;
    1524	2	0	0	0	0	1	1	0	380	1	1.1	0.9	;
    1539	2	0	0	0	0	1	1	0	380	1	1.1	0.9	;
    1543	2	0	0	0	0	1	1	0	380	1	1.1	0.9	;
    1555	2	0	0	0	0	1	1	0	380	1	1.1	0.9	;
    1585	2	0	0	0	0	1	1	0	380	1	1.1	0.9	;
    1587	2	0	0	0	0	1	1	0	380	1	1.1	0.9	;
    1588	2	0	0	0	0	1	1	0	380	1	1.1	0.9	;
    1599	2	0	0	0	0	1	1	0	380	1	1.1	0.9	;
    1603	2	0	0	0	0	1	1	0	380	1	1.1	0.9	;
    1608	2	0	0	0	0	1	1	0	380	1	1.1	0.9	;
    2457	2	0	0	0	0	1	1	0	380	1	1.1	0.9	;
    2458	2	0	0	0	0	1	1	0	380	1	1.1	0.9	;
    2460	2	0	0	0	0	1	1	0	380	1	1.1	0.9	;
    4931	2	0	0	0	0	1	1	0	380	1	1.1	0.9	;
    4932	2	0	0	0	0	1	1	0	380	1	1.1	0.9	;
    4933	2	0	0	0	0	1	1	0	380	1	1.1	0.9	;
    4934	2	0	0	0	0	1	1	0	380	1	1.1	0.9	;
    4940	2	0	0	0	0	1	1	0	380	1	1.1	0.9	;
    5476	2	0	0	0	0	1	1	0	380	1	1.1	0.9	;
    5477	2	0	0	0	0	1	1	0	380	1	1.1	0.9	;
    5478	2	0	0	0	0	1	1	0	380	1	1.1	0.9	;
    5479	2	0	0	0	0	1	1	0	380	1	1.1	0.9	;
    5480	2	0	0	0	0	1	1	0	380	1	1.1	0.9	;
    5481	2	0	0	0	0	1	1	0	380	1	1.1	0.9	;
    5483	2	0	0	0	0	1	1	0	380	1	1.1	0.9	;
    5484	2	0	0	0	0	1	1	0	380	1	1.1	0.9	;
    5485	2	0	0	0	0	1	1	0	380	1	1.1	0.9	;
    5486	2	0	0	0	0	1	1	0	380	1	1.1	0.9	;
    5487	2	0	0	0	0	1	1	0	380	1	1.1	0.9	;
    5488	2	0	0	0	0	1	1	0	380	1	1.1	0.9	;
    5489	2	0	0	0	0	1	1	0	380	1	1.1	0.9	;
    5493	2	0	0	0	0	1	1	0	380	1	1.1	0.9	;
    5497	2	0	0	0	0	1	1	0	380	1	1.1	0.9	;
    ];
%% bus mapping: n1=1, n2=2, n3=3, n4=4, n5=5, n6=6

%% branch data r, x, b (7 random branches connecting generator buses)
%  1-fbus  2-tbus   3-r       4-x       5-b       6-rateA  7-rateB  8-rateC  9-ratio  10-angle  11-status  12-angmin  13-angmax
mpc.branch = [
% Branch 1: Connect bus 4937 (slack) to bus 4932 (large generator)
     4937    4932    0.0010    0.0100    0.0000     1000     1000     1000       0         0         1         -60         60;
     
% Branch 2: Connect bus 4937 to bus 4924
     4937    4924    0.0015    0.0150    0.0000     1000     1000     1000       0         0         1         -60         60;
     
% Branch 3: Connect bus 4932 to bus 4922
     4932    4922    0.0020    0.0200    0.0000     1000     1000     1000       0         0         1         -60         60;
     
% Branch 4: Connect bus 4924 to bus 4914
     4924    4914    0.0018    0.0180    0.0000     1000     1000     1000       0         0         1         -60         60;
     
% Branch 5: Connect bus 5477 to bus 5480
     5477    5480    0.0022    0.0220    0.0000     1000     1000     1000       0         0         1         -60         60;
     
% Branch 6: Connect bus 5480 to bus 5484
     5480    5484    0.0012    0.0120    0.0000     1000     1000     1000       0         0         1         -60         60;
     
% Branch 7: Connect bus 2457 to bus 2460
     2457    2460    0.0014    0.0140    0.0000     1000     1000     1000       0         0         1         -60         60;
];

%% Unified generation table
%
% 1-bus 2-Pg 3-Qg 4-Qmax 5-Qmin 6-Vg 7-mBase 8-status 9-Pmax 10-Pmin Pc1 Pc2 Qc1min Qc1max Qc2min Qc2max ramp_agc ramp_10 ramp_30 ramp_q apf alpha

mpc.gen = [
2 0 0 0 0 0 100 1 500 250 0 0 0 0 0 0 0 0 0 0 0 0;
2 0 0 0 0 0 100 1 500 250 0 0 0 0 0 0 0 0 0 0 0 0;
2 0 0 0 0 0 100 1 500 250 0 0 0 0 0 0 0 0 0 0 0 0;
2 0 0 0 0 0 100 1 500 250 0 0 0 0 0 0 0 0 0 0 0 0;
2 0 0 0 0 0 100 1 500 250 0 0 0 0 0 0 0 0 0 0 0 0;
2 0 0 0 0 0 100 1 500 250 0 0 0 0 0 0 0 0 0 0 0 0;
2 0 0 0 0 0 100 1 500 250 0 0 0 0 0 0 0 0 0 0 0 0;
2 0 0 0 0 0 100 1 500 250 0 0 0 0 0 0 0 0 0 0 0 0;
2 0 0 0 0 0 100 1 500 250 0 0 0 0 0 0 0 0 0 0 0 0;
2 0 0 0 0 0 100 1 500 250 0 0 0 0 0 0 0 0 0 0 0 0;
2 0 0 0 0 0 100 1 500 250 0 0 0 0 0 0 0 0 0 0 0 0;
2 0 0 0 0 0 100 1 500 250 0 0 0 0 0 0 0 0 0 0 0 0;
2 0 0 0 0 0 100 1 500 250 0 0 0 0 0 0 0 0 0 0 0 0;
2 0 0 0 0 0 100 1 500 250 0 0 0 0 0 0 0 0 0 0 0 0;
2 0 0 0 0 0 100 1 500 250 0 0 0 0 0 0 0 0 0 0 0 0;
2 0 0 0 0 0 100 1 500 250 0 0 0 0 0 0 0 0 0 0 0 0;
2 0 0 0 0 0 100 1 500 250 0 0 0 0 0 0 0 0 0 0 0 0;
2 0 0 0 0 0 100 1 500 250 0 0 0 0 0 0 0 0 0 0 0 0;
2 0 0 0 0 0 100 1 500 250 0 0 0 0 0 0 0 0 0 0 0 0;
2 0 0 0 0 0 100 1 500 250 0 0 0 0 0 0 0 0 0 0 0 0;
2 0 0 0 0 0 100 1 500 250 0 0 0 0 0 0 0 0 0 0 0 0;
2 0 0 0 0 0 100 1 500 250 0 0 0 0 0 0 0 0 0 0 0 0;
2 0 0 0 0 0 100 1 500 250 0 0 0 0 0 0 0 0 0 0 0 0;
2 0 0 0 0 0 100 1 500 250 0 0 0 0 0 0 0 0 0 0 0 0;
2 0 0 0 0 0 100 1 500 250 0 0 0 0 0 0 0 0 0 0 0 0;
2 0 0 0 0 0 100 1 500 250 0 0 0 0 0 0 0 0 0 0 0 0;
2 0 0 0 0 0 100 1 500 250 0 0 0 0 0 0 0 0 0 0 0 0;
2 0 0 0 0 0 100 1 500 250 0 0 0 0 0 0 0 0 0 0 0 0;
2 0 0 0 0 0 100 1 500 250 0 0 0 0 0 0 0 0 0 0 0 0;
2 0 0 0 0 0 100 1 500 250 0 0 0 0 0 0 0 0 0 0 0 0;
2 0 0 0 0 0 100 1 500 250 0 0 0 0 0 0 0 0 0 0 0 0;
2 0 0 0 0 0 100 1 500 250 0 0 0 0 0 0 0 0 0 0 0 0;
2 0 0 0 0 0 100 1 500 250 0 0 0 0 0 0 0 0 0 0 0 0;
2 0 0 0 0 0 100 1 500 250 0 0 0 0 0 0 0 0 0 0 0 0;
2 0 0 0 0 0 100 1 500 250 0 0 0 0 0 0 0 0 0 0 0 0;
2 0 0 0 0 0 100 1 500 250 0 0 0 0 0 0 0 0 0 0 0 0;
2 0 0 0 0 0 100 1 500 250 0 0 0 0 0 0 0 0 0 0 0 0;
2 0 0 0 0 0 100 1 500 250 0 0 0 0 0 0 0 0 0 0 0 0;
2 0 0 0 0 0 100 1 500 250 0 0 0 0 0 0 0 0 0 0 0 0;
2 0 0 0 0 0 100 1 500 250 0 0 0 0 0 0 0 0 0 0 0 0;
2 0 0 0 0 0 100 1 500 250 0 0 0 0 0 0 0 0 0 0 0 0;
2 0 0 0 0 0 100 1 500 250 0 0 0 0 0 0 0 0 0 0 0 0;
2 0 0 0 0 0 100 1 500 250 0 0 0 0 0 0 0 0 0 0 0 0;
2 0 0 0 0 0 100 1 500 250 0 0 0 0 0 0 0 0 0 0 0 0;
2 0 0 0 0 0 100 1 500 250 0 0 0 0 0 0 0 0 0 0 0 0;
2 0 0 0 0 0 100 1 500 250 0 0 0 0 0 0 0 0 0 0 0 0;
2 0 0 0 0 0 100 1 500 250 0 0 0 0 0 0 0 0 0 0 0 0;
2 0 0 0 0 0 100 1 500 250 0 0 0 0 0 0 0 0 0 0 0 0;
2 0 0 0 0 0 100 1 500 250 0 0 0 0 0 0 0 0 0 0 0 0;
2 0 0 0 0 0 100 1 500 250 0 0 0 0 0 0 0 0 0 0 0 0;
2 0 0 0 0 0 100 1 500 250 0 0 0 0 0 0 0 0 0 0 0 0;
2 0 0 0 0 0 100 1 500 250 0 0 0 0 0 0 0 0 0 0 0 0;
2 0 0 0 0 0 100 1 500 250 0 0 0 0 0 0 0 0 0 0 0 0;
2 0 0 0 0 0 100 1 500 250 0 0 0 0 0 0 0 0 0 0 0 0;
2 0 0 0 0 0 100 1 500 250 0 0 0 0 0 0 0 0 0 0 0 0;
2 0 0 0 0 0 100 1 500 250 0 0 0 0 0 0 0 0 0 0 0 0;
2 0 0 0 0 0 100 1 500 250 0 0 0 0 0 0 0 0 0 0 0 0;
2 0 0 0 0 0 100 1 500 250 0 0 0 0 0 0 0 0 0 0 0 0;
2 0 0 0 0 0 100 1 500 250 0 0 0 0 0 0 0 0 0 0 0 0;
2 0 0 0 0 0 100 1 500 250 0 0 0 0 0 0 0 0 0 0 0 0;
2 0 0 0 0 0 100 1 500 250 0 0 0 0 0 0 0 0 0 0 0 0;
2 0 0 0 0 0 100 1 500 250 0 0 0 0 0 0 0 0 0 0 0 0;
2 0 0 0 0 0 100 1 500 250 0 0 0 0 0 0 0 0 0 0 0 0;
2 0 0 0 0 0 100 1 500 250 0 0 0 0 0 0 0 0 0 0 0 0;
2 0 0 0 0 0 100 1 500 250 0 0 0 0 0 0 0 0 0 0 0 0;
2 0 0 0 0 0 100 1 500 250 0 0 0 0 0 0 0 0 0 0 0 0;
2 0 0 0 0 0 100 1 500 250 0 0 0 0 0 0 0 0 0 0 0 0;
2 0 0 0 0 0 100 1 500 250 0 0 0 0 0 0 0 0 0 0 0 0;
2 0 0 0 0 0 100 1 500 250 0 0 0 0 0 0 0 0 0 0 0 0;
2 0 0 0 0 0 100 1 500 250 0 0 0 0 0 0 0 0 0 0 0 0;
2 0 0 0 0 0 100 1 500 250 0 0 0 0 0 0 0 0 0 0 0 0;
2 0 0 0 0 0 100 1 500 250 0 0 0 0 0 0 0 0 0 0 0 0;
2 0 0 0 0 0 100 1 500 250 0 0 0 0 0 0 0 0 0 0 0 0;
2 0 0 0 0 0 100 1 500 250 0 0 0 0 0 0 0 0 0 0 0 0;
2 0 0 0 0 0 100 1 500 250 0 0 0 0 0 0 0 0 0 0 0 0;
2 0 0 0 0 0 100 1 500 250 0 0 0 0 0 0 0 0 0 0 0 0;
2 0 0 0 0 0 100 1 500 250 0 0 0 0 0 0 0 0 0 0 0 0;
2 0 0 0 0 0 100 1 500 250 0 0 0 0 0 0 0 0 0 0 0 0;
2 0 0 0 0 0 100 1 500 250 0 0 0 0 0 0 0 0 0 0 0 0;
2 0 0 0 0 0 100 1 500 250 0 0 0 0 0 0 0 0 0 0 0 0;
2 0 0 0 0 0 100 1 500 250 0 0 0 0 0 0 0 0 0 0 0 0;
2 0 0 0 0 0 100 1 500 250 0 0 0 0 0 0 0 0 0 0 0 0;
2 0 0 0 0 0 100 1 500 250 0 0 0 0 0 0 0 0 0 0 0 0;
2 0 0 0 0 0 100 1 500 250 0 0 0 0 0 0 0 0 0 0 0 0;
2 0 0 0 0 0 100 1 500 250 0 0 0 0 0 0 0 0 0 0 0 0;
2 0 0 0 0 0 100 1 500 250 0 0 0 0 0 0 0 0 0 0 0 0;
2 0 0 0 0 0 100 1 500 250 0 0 0 0 0 0 0 0 0 0 0 0;
2 0 0 0 0 0 100 1 500 250 0 0 0 0 0 0 0 0 0 0 0 0;
2 0 0 0 0 0 100 1 500 250 0 0 0 0 0 0 0 0 0 0 0 0;
2 0 0 0 0 0 100 1 500 250 0 0 0 0 0 0 0 0 0 0 0 0;
2 0 0 0 0 0 100 1 500 250 0 0 0 0 0 0 0 0 0 0 0 0;
2 0 0 0 0 0 100 1 500 250 0 0 0 0 0 0 0 0 0 0 0 0;
2 0 0 0 0 0 100 1 500 250 0 0 0 0 0 0 0 0 0 0 0 0;
2 0 0 0 0 0 100 1 500 250 0 0 0 0 0 0 0 0 0 0 0 0;
2 0 0 0 0 0 100 1 500 250 0 0 0 0 0 0 0 0 0 0 0 0;
2 0 0 0 0 0 100 1 500 250 0 0 0 0 0 0 0 0 0 0 0 0;
2 0 0 0 0 0 100 1 500 250 0 0 0 0 0 0 0 0 0 0 0 0;
2 0 0 0 0 0 100 1 500 250 0 0 0 0 0 0 0 0 0 0 0 0;
2 0 0 0 0 0 100 1 500 250 0 0 0 0 0 0 0 0 0 0 0 0;
2 0 0 0 0 0 100 1 500 250 0 0 0 0 0 0 0 0 0 0 0 0;

2 0 0 0 0 0 100 1 100 50 0 0 0 0 0 0 0 0 0 0 0 0;
2 0 0 0 0 0 100 1 100 50 0 0 0 0 0 0 0 0 0 0 0 0;
2 0 0 0 0 0 100 1 100 50 0 0 0 0 0 0 0 0 0 0 0 0;
2 0 0 0 0 0 100 1 100 50 0 0 0 0 0 0 0 0 0 0 0 0;
2 0 0 0 0 0 100 1 100 50 0 0 0 0 0 0 0 0 0 0 0 0;
2 0 0 0 0 0 100 1 100 50 0 0 0 0 0 0 0 0 0 0 0 0;
2 0 0 0 0 0 100 1 100 50 0 0 0 0 0 0 0 0 0 0 0 0;
2 0 0 0 0 0 100 1 100 50 0 0 0 0 0 0 0 0 0 0 0 0;
2 0 0 0 0 0 100 1 100 50 0 0 0 0 0 0 0 0 0 0 0 0;
2 0 0 0 0 0 100 1 100 50 0 0 0 0 0 0 0 0 0 0 0 0;
2 0 0 0 0 0 100 1 100 50 0 0 0 0 0 0 0 0 0 0 0 0;
2 0 0 0 0 0 100 1 100 50 0 0 0 0 0 0 0 0 0 0 0 0;
2 0 0 0 0 0 100 1 100 50 0 0 0 0 0 0 0 0 0 0 0 0;
2 0 0 0 0 0 100 1 100 50 0 0 0 0 0 0 0 0 0 0 0 0;
2 0 0 0 0 0 100 1 100 50 0 0 0 0 0 0 0 0 0 0 0 0;
2 0 0 0 0 0 100 1 100 50 0 0 0 0 0 0 0 0 0 0 0 0;
2 0 0 0 0 0 100 1 100 50 0 0 0 0 0 0 0 0 0 0 0 0;
2 0 0 0 0 0 100 1 100 50 0 0 0 0 0 0 0 0 0 0 0 0;
2 0 0 0 0 0 100 1 100 50 0 0 0 0 0 0 0 0 0 0 0 0;
2 0 0 0 0 0 100 1 100 50 0 0 0 0 0 0 0 0 0 0 0 0;
2 0 0 0 0 0 100 1 100 50 0 0 0 0 0 0 0 0 0 0 0 0;
2 0 0 0 0 0 100 1 100 50 0 0 0 0 0 0 0 0 0 0 0 0;
2 0 0 0 0 0 100 1 100 50 0 0 0 0 0 0 0 0 0 0 0 0;
2 0 0 0 0 0 100 1 100 50 0 0 0 0 0 0 0 0 0 0 0 0;
2 0 0 0 0 0 100 1 100 50 0 0 0 0 0 0 0 0 0 0 0 0;
2 0 0 0 0 0 100 1 100 50 0 0 0 0 0 0 0 0 0 0 0 0;
2 0 0 0 0 0 100 1 100 50 0 0 0 0 0 0 0 0 0 0 0 0;
2 0 0 0 0 0 100 1 100 50 0 0 0 0 0 0 0 0 0 0 0 0;
2 0 0 0 0 0 100 1 100 50 0 0 0 0 0 0 0 0 0 0 0 0;
2 0 0 0 0 0 100 1 100 50 0 0 0 0 0 0 0 0 0 0 0 0;

2 0  0  0  0  0  100  1  1800  1400  0 0 0 0 0 0 0 0 0 0 0 0;
2 0  0  0  0  0  100  1  1800  1400  0 0 0 0 0 0 0 0 0 0 0 0;
2 0  0  0  0  0  100  1  1800  1400  0 0 0 0 0 0 0 0 0 0 0 0;
2 0  0  0  0  0  100  1  1800  1400  0 0 0 0 0 0 0 0 0 0 0 0;

2 0  0  0  0  0  100  1  2600  0  0 0 0 0 0 0 0 0 0 0 0 0;

];



%% Unified generation cost table (mpc.gencost_all)
% 2 startup shutdown n c1 c0
% costo(P) = c1*P + c0
% with 1 EUR = 0.857 GBP

mpc.gencost = [
2 11666.00 0 2 54.83 5249.70;
2 11666.00 0 2 54.83 5249.70;
2 11666.00 0 2 54.83 5249.70;
2 11666.00 0 2 54.83 5249.70;
2 11666.00 0 2 54.83 5249.70;
2 11666.00 0 2 54.83 5249.70;
2 11666.00 0 2 54.83 5249.70;
2 11666.00 0 2 54.83 5249.70;
2 11666.00 0 2 54.83 5249.70;
2 11666.00 0 2 54.83 5249.70;
2 11666.00 0 2 54.83 5249.70;
2 11666.00 0 2 54.83 5249.70;
2 11666.00 0 2 54.83 5249.70;
2 11666.00 0 2 54.83 5249.70;
2 11666.00 0 2 54.83 5249.70;
2 11666.00 0 2 54.83 5249.70;
2 11666.00 0 2 54.83 5249.70;
2 11666.00 0 2 54.83 5249.70;
2 11666.00 0 2 54.83 5249.70;
2 11666.00 0 2 54.83 5249.70;
2 11666.00 0 2 54.83 5249.70;
2 11666.00 0 2 54.83 5249.70;
2 11666.00 0 2 54.83 5249.70;
2 11666.00 0 2 54.83 5249.70;
2 11666.00 0 2 54.83 5249.70;
2 11666.00 0 2 54.83 5249.70;
2 11666.00 0 2 54.83 5249.70;
2 11666.00 0 2 54.83 5249.70;
2 11666.00 0 2 54.83 5249.70;
2 11666.00 0 2 54.83 5249.70;
2 11666.00 0 2 54.83 5249.70;
2 11666.00 0 2 54.83 5249.70;
2 11666.00 0 2 54.83 5249.70;
2 11666.00 0 2 54.83 5249.70;
2 11666.00 0 2 54.83 5249.70;
2 11666.00 0 2 54.83 5249.70;
2 11666.00 0 2 54.83 5249.70;
2 11666.00 0 2 54.83 5249.70;
2 11666.00 0 2 54.83 5249.70;
2 11666.00 0 2 54.83 5249.70;
2 11666.00 0 2 54.83 5249.70;
2 11666.00 0 2 54.83 5249.70;
2 11666.00 0 2 54.83 5249.70;
2 11666.00 0 2 54.83 5249.70;
2 11666.00 0 2 54.83 5249.70;
2 11666.00 0 2 54.83 5249.70;
2 11666.00 0 2 54.83 5249.70;
2 11666.00 0 2 54.83 5249.70;
2 11666.00 0 2 54.83 5249.70;
2 11666.00 0 2 54.83 5249.70;
2 11666.00 0 2 54.83 5249.70;
2 11666.00 0 2 54.83 5249.70;
2 11666.00 0 2 54.83 5249.70;
2 11666.00 0 2 54.83 5249.70;
2 11666.00 0 2 54.83 5249.70;
2 11666.00 0 2 54.83 5249.70;
2 11666.00 0 2 54.83 5249.70;
2 11666.00 0 2 54.83 5249.70;
2 11666.00 0 2 54.83 5249.70;
2 11666.00 0 2 54.83 5249.70;
2 11666.00 0 2 54.83 5249.70;
2 11666.00 0 2 54.83 5249.70;
2 11666.00 0 2 54.83 5249.70;
2 11666.00 0 2 54.83 5249.70;
2 11666.00 0 2 54.83 5249.70;
2 11666.00 0 2 54.83 5249.70;
2 11666.00 0 2 54.83 5249.70;
2 11666.00 0 2 54.83 5249.70;
2 11666.00 0 2 54.83 5249.70;
2 11666.00 0 2 54.83 5249.70;
2 11666.00 0 2 54.83 5249.70;
2 11666.00 0 2 54.83 5249.70;
2 11666.00 0 2 54.83 5249.70;
2 11666.00 0 2 54.83 5249.70;
2 11666.00 0 2 54.83 5249.70;
2 11666.00 0 2 54.83 5249.70;
2 11666.00 0 2 54.83 5249.70;
2 11666.00 0 2 54.83 5249.70;
2 11666.00 0 2 54.83 5249.70;
2 11666.00 0 2 54.83 5249.70;
2 11666.00 0 2 54.83 5249.70;
2 11666.00 0 2 54.83 5249.70;
2 11666.00 0 2 54.83 5249.70;
2 11666.00 0 2 54.83 5249.70;
2 11666.00 0 2 54.83 5249.70;
2 11666.00 0 2 54.83 5249.70;
2 11666.00 0 2 54.83 5249.70;
2 11666.00 0 2 54.83 5249.70;
2 11666.00 0 2 54.83 5249.70;
2 11666.00 0 2 54.83 5249.70;
2 11666.00 0 2 54.83 5249.70;
2 11666.00 0 2 54.83 5249.70;
2 11666.00 0 2 54.83 5249.70;
2 11666.00 0 2 54.83 5249.70;
2 11666.00 0 2 54.83 5249.70;
2 11666.00 0 2 54.83 5249.70;
2 11666.00 0 2 54.83 5249.70;
2 11666.00 0 2 54.83 5249.70;
2 11666.00 0 2 54.83 5249.70;
2 11666.00 0 2 54.83 5249.70;

2  0  0  2  233.32  3499.80;
2  0  0  2  233.32  3499.80;
2  0  0  2  233.32  3499.80;
2  0  0  2  233.32  3499.80;
2  0  0  2  233.32  3499.80;
2  0  0  2  233.32  3499.80;
2  0  0  2  233.32  3499.80;
2  0  0  2  233.32  3499.80;
2  0  0  2  233.32  3499.80;
2  0  0  2  233.32  3499.80;
2  0  0  2  233.32  3499.80;
2  0  0  2  233.32  3499.80;
2  0  0  2  233.32  3499.80;
2  0  0  2  233.32  3499.80;
2  0  0  2  233.32  3499.80;
2  0  0  2  233.32  3499.80;
2  0  0  2  233.32  3499.80;
2  0  0  2  233.32  3499.80;
2  0  0  2  233.32  3499.80;
2  0  0  2  233.32  3499.80;
2  0  0  2  233.32  3499.80;
2  0  0  2  233.32  3499.80;
2  0  0  2  233.32  3499.80;
2  0  0  2  233.32  3499.80;
2  0  0  2  233.32  3499.80;
2  0  0  2  233.32  3499.80;
2  0  0  2  233.32  3499.80;
2  0  0  2  233.32  3499.80;
2  0  0  2  233.32  3499.80;
2  0  0  2  233.32  3499.80;

2 0 0 2 11.67 0;
2 0 0 2 11.67 0;
2 0 0 2 11.67 0;
2 0 0 2 11.67 0;

2  0  0  2  0  0;
];





%% Unified extra operational data with technology type
% Columns:
% Bus  DT[s]  IC[s]  upramp_MWph  downramp_MWph  MUT[h]  MDT[h]  reservecost_g  MaxFRdeliverable[MW]  Ppump  Storage      type  n_pumping  n_generating  E_Pump_min  E_Pump_ini  E_pump_end 
%
% type:
% 1 = mpc.genextra_reservoir
% 2 = mpc.gen_extra_pump
% 3 = mpc.gen_extra_nuclear
% 4 = mpc.gen_extra_gas
% 5 = mpc.gen_extra_biomass
% 6 = mpc.gen_extra_oil
% 7 = mpc.gen_extra_solar
% 8 = mpc.gen_extra_wind

mpc.genextra = [2 15 4 1200 1200 4 4 14.27 50 0 0 4 0 0 0 0 0;
2 15 4 1200 1200 4 4 14.27 50 0 0 4 0 0 0 0 0;
2 15 4 1200 1200 4 4 14.27 50 0 0 4 0 0 0 0 0;
2 15 4 1200 1200 4 4 14.27 50 0 0 4 0 0 0 0 0;
2 15 4 1200 1200 4 4 14.27 50 0 0 4 0 0 0 0 0;
2 15 4 1200 1200 4 4 14.27 50 0 0 4 0 0 0 0 0;
2 15 4 1200 1200 4 4 14.27 50 0 0 4 0 0 0 0 0;
2 15 4 1200 1200 4 4 14.27 50 0 0 4 0 0 0 0 0;
2 15 4 1200 1200 4 4 14.27 50 0 0 4 0 0 0 0 0;
2 15 4 1200 1200 4 4 14.27 50 0 0 4 0 0 0 0 0;
2 15 4 1200 1200 4 4 14.27 50 0 0 4 0 0 0 0 0;
2 15 4 1200 1200 4 4 14.27 50 0 0 4 0 0 0 0 0;
2 15 4 1200 1200 4 4 14.27 50 0 0 4 0 0 0 0 0;
2 15 4 1200 1200 4 4 14.27 50 0 0 4 0 0 0 0 0;
2 15 4 1200 1200 4 4 14.27 50 0 0 4 0 0 0 0 0;
2 15 4 1200 1200 4 4 14.27 50 0 0 4 0 0 0 0 0;
2 15 4 1200 1200 4 4 14.27 50 0 0 4 0 0 0 0 0;
2 15 4 1200 1200 4 4 14.27 50 0 0 4 0 0 0 0 0;
2 15 4 1200 1200 4 4 14.27 50 0 0 4 0 0 0 0 0;
2 15 4 1200 1200 4 4 14.27 50 0 0 4 0 0 0 0 0;
2 15 4 1200 1200 4 4 14.27 50 0 0 4 0 0 0 0 0;
2 15 4 1200 1200 4 4 14.27 50 0 0 4 0 0 0 0 0;
2 15 4 1200 1200 4 4 14.27 50 0 0 4 0 0 0 0 0;
2 15 4 1200 1200 4 4 14.27 50 0 0 4 0 0 0 0 0;
2 15 4 1200 1200 4 4 14.27 50 0 0 4 0 0 0 0 0;
2 15 4 1200 1200 4 4 14.27 50 0 0 4 0 0 0 0 0;
2 15 4 1200 1200 4 4 14.27 50 0 0 4 0 0 0 0 0;
2 15 4 1200 1200 4 4 14.27 50 0 0 4 0 0 0 0 0;
2 15 4 1200 1200 4 4 14.27 50 0 0 4 0 0 0 0 0;
2 15 4 1200 1200 4 4 14.27 50 0 0 4 0 0 0 0 0;
2 15 4 1200 1200 4 4 14.27 50 0 0 4 0 0 0 0 0;
2 15 4 1200 1200 4 4 14.27 50 0 0 4 0 0 0 0 0;
2 15 4 1200 1200 4 4 14.27 50 0 0 4 0 0 0 0 0;
2 15 4 1200 1200 4 4 14.27 50 0 0 4 0 0 0 0 0;
2 15 4 1200 1200 4 4 14.27 50 0 0 4 0 0 0 0 0;
2 15 4 1200 1200 4 4 14.27 50 0 0 4 0 0 0 0 0;
2 15 4 1200 1200 4 4 14.27 50 0 0 4 0 0 0 0 0;
2 15 4 1200 1200 4 4 14.27 50 0 0 4 0 0 0 0 0;
2 15 4 1200 1200 4 4 14.27 50 0 0 4 0 0 0 0 0;
2 15 4 1200 1200 4 4 14.27 50 0 0 4 0 0 0 0 0;
2 15 4 1200 1200 4 4 14.27 50 0 0 4 0 0 0 0 0;
2 15 4 1200 1200 4 4 14.27 50 0 0 4 0 0 0 0 0;
2 15 4 1200 1200 4 4 14.27 50 0 0 4 0 0 0 0 0;
2 15 4 1200 1200 4 4 14.27 50 0 0 4 0 0 0 0 0;
2 15 4 1200 1200 4 4 14.27 50 0 0 4 0 0 0 0 0;
2 15 4 1200 1200 4 4 14.27 50 0 0 4 0 0 0 0 0;
2 15 4 1200 1200 4 4 14.27 50 0 0 4 0 0 0 0 0;
2 15 4 1200 1200 4 4 14.27 50 0 0 4 0 0 0 0 0;
2 15 4 1200 1200 4 4 14.27 50 0 0 4 0 0 0 0 0;
2 15 4 1200 1200 4 4 14.27 50 0 0 4 0 0 0 0 0;
2 15 4 1200 1200 4 4 14.27 50 0 0 4 0 0 0 0 0;
2 15 4 1200 1200 4 4 14.27 50 0 0 4 0 0 0 0 0;
2 15 4 1200 1200 4 4 14.27 50 0 0 4 0 0 0 0 0;
2 15 4 1200 1200 4 4 14.27 50 0 0 4 0 0 0 0 0;
2 15 4 1200 1200 4 4 14.27 50 0 0 4 0 0 0 0 0;
2 15 4 1200 1200 4 4 14.27 50 0 0 4 0 0 0 0 0;
2 15 4 1200 1200 4 4 14.27 50 0 0 4 0 0 0 0 0;
2 15 4 1200 1200 4 4 14.27 50 0 0 4 0 0 0 0 0;
2 15 4 1200 1200 4 4 14.27 50 0 0 4 0 0 0 0 0;
2 15 4 1200 1200 4 4 14.27 50 0 0 4 0 0 0 0 0;
2 15 4 1200 1200 4 4 14.27 50 0 0 4 0 0 0 0 0;
2 15 4 1200 1200 4 4 14.27 50 0 0 4 0 0 0 0 0;
2 15 4 1200 1200 4 4 14.27 50 0 0 4 0 0 0 0 0;
2 15 4 1200 1200 4 4 14.27 50 0 0 4 0 0 0 0 0;
2 15 4 1200 1200 4 4 14.27 50 0 0 4 0 0 0 0 0;
2 15 4 1200 1200 4 4 14.27 50 0 0 4 0 0 0 0 0;
2 15 4 1200 1200 4 4 14.27 50 0 0 4 0 0 0 0 0;
2 15 4 1200 1200 4 4 14.27 50 0 0 4 0 0 0 0 0;
2 15 4 1200 1200 4 4 14.27 50 0 0 4 0 0 0 0 0;
2 15 4 1200 1200 4 4 14.27 50 0 0 4 0 0 0 0 0;
2 15 4 1200 1200 4 4 14.27 50 0 0 4 0 0 0 0 0;
2 15 4 1200 1200 4 4 14.27 50 0 0 4 0 0 0 0 0;
2 15 4 1200 1200 4 4 14.27 50 0 0 4 0 0 0 0 0;
2 15 4 1200 1200 4 4 14.27 50 0 0 4 0 0 0 0 0;
2 15 4 1200 1200 4 4 14.27 50 0 0 4 0 0 0 0 0;
2 15 4 1200 1200 4 4 14.27 50 0 0 4 0 0 0 0 0;
2 15 4 1200 1200 4 4 14.27 50 0 0 4 0 0 0 0 0;
2 15 4 1200 1200 4 4 14.27 50 0 0 4 0 0 0 0 0;
2 15 4 1200 1200 4 4 14.27 50 0 0 4 0 0 0 0 0;
2 15 4 1200 1200 4 4 14.27 50 0 0 4 0 0 0 0 0;
2 15 4 1200 1200 4 4 14.27 50 0 0 4 0 0 0 0 0;
2 15 4 1200 1200 4 4 14.27 50 0 0 4 0 0 0 0 0;
2 15 4 1200 1200 4 4 14.27 50 0 0 4 0 0 0 0 0;
2 15 4 1200 1200 4 4 14.27 50 0 0 4 0 0 0 0 0;
2 15 4 1200 1200 4 4 14.27 50 0 0 4 0 0 0 0 0;
2 15 4 1200 1200 4 4 14.27 50 0 0 4 0 0 0 0 0;
2 15 4 1200 1200 4 4 14.27 50 0 0 4 0 0 0 0 0;
2 15 4 1200 1200 4 4 14.27 50 0 0 4 0 0 0 0 0;
2 15 4 1200 1200 4 4 14.27 50 0 0 4 0 0 0 0 0;
2 15 4 1200 1200 4 4 14.27 50 0 0 4 0 0 0 0 0;
2 15 4 1200 1200 4 4 14.27 50 0 0 4 0 0 0 0 0;
2 15 4 1200 1200 4 4 14.27 50 0 0 4 0 0 0 0 0;
2 15 4 1200 1200 4 4 14.27 50 0 0 4 0 0 0 0 0;
2 15 4 1200 1200 4 4 14.27 50 0 0 4 0 0 0 0 0;
2 15 4 1200 1200 4 4 14.27 50 0 0 4 0 0 0 0 0;
2 15 4 1200 1200 4 4 14.27 50 0 0 4 0 0 0 0 0;
2 15 4 1200 1200 4 4 14.27 50 0 0 4 0 0 0 0 0;
2 15 4 1200 1200 4 4 14.27 50 0 0 4 0 0 0 0 0;
2 15 4 1200 1200 4 4 14.27 50 0 0 4 0 0 0 0 0;
2 15 4 1200 1200 4 4 14.27 50 0 0 4 0 0 0 0 0;

2 15 4 720 720 0 0 14.27 20 0 0 4 0 0 0 0 0;
2 15 4 720 720 0 0 14.27 20 0 0 4 0 0 0 0 0;
2 15 4 720 720 0 0 14.27 20 0 0 4 0 0 0 0 0;
2 15 4 720 720 0 0 14.27 20 0 0 4 0 0 0 0 0;
2 15 4 720 720 0 0 14.27 20 0 0 4 0 0 0 0 0;
2 15 4 720 720 0 0 14.27 20 0 0 4 0 0 0 0 0;
2 15 4 720 720 0 0 14.27 20 0 0 4 0 0 0 0 0;
2 15 4 720 720 0 0 14.27 20 0 0 4 0 0 0 0 0;
2 15 4 720 720 0 0 14.27 20 0 0 4 0 0 0 0 0;
2 15 4 720 720 0 0 14.27 20 0 0 4 0 0 0 0 0;
2 15 4 720 720 0 0 14.27 20 0 0 4 0 0 0 0 0;
2 15 4 720 720 0 0 14.27 20 0 0 4 0 0 0 0 0;
2 15 4 720 720 0 0 14.27 20 0 0 4 0 0 0 0 0;
2 15 4 720 720 0 0 14.27 20 0 0 4 0 0 0 0 0;
2 15 4 720 720 0 0 14.27 20 0 0 4 0 0 0 0 0;
2 15 4 720 720 0 0 14.27 20 0 0 4 0 0 0 0 0;
2 15 4 720 720 0 0 14.27 20 0 0 4 0 0 0 0 0;
2 15 4 720 720 0 0 14.27 20 0 0 4 0 0 0 0 0;
2 15 4 720 720 0 0 14.27 20 0 0 4 0 0 0 0 0;
2 15 4 720 720 0 0 14.27 20 0 0 4 0 0 0 0 0;
2 15 4 720 720 0 0 14.27 20 0 0 4 0 0 0 0 0;
2 15 4 720 720 0 0 14.27 20 0 0 4 0 0 0 0 0;
2 15 4 720 720 0 0 14.27 20 0 0 4 0 0 0 0 0;
2 15 4 720 720 0 0 14.27 20 0 0 4 0 0 0 0 0;
2 15 4 720 720 0 0 14.27 20 0 0 4 0 0 0 0 0;
2 15 4 720 720 0 0 14.27 20 0 0 4 0 0 0 0 0;
2 15 4 720 720 0 0 14.27 20 0 0 4 0 0 0 0 0;
2 15 4 720 720 0 0 14.27 20 0 0 4 0 0 0 0 0;
2 15 4 720 720 0 0 14.27 20 0 0 4 0 0 0 0 0;
2 15 4 720 720 0 0 14.27 20 0 0 4 0 0 0 0 0;

2 15 5 1800 1800 24 0 14.27 36 0 0 3 0 0 0 0 0;
2 15 5 1800 1800 24 0 14.27 36 0 0 3 0 0 0 0 0;
2 15 5 1800 1800 24 0 14.27 36 0 0 3 0 0 0 0 0;
2 15 5 1800 1800 24 0 14.27 36 0 0 3 0 0 0 0 0;

2  15  3.75  2600  2600  0  0  14.27  26  -2600  10000  2  0.75  0.75  650  1000  1000;
];










%% Electrolyzer data
%  1-AC_bus   2-area   3-Pmax_MW   4-Pmin_MW   5-eta_ely_MWh_per_kg   6-LoadFactor   7-max_hydrog_flow_kg   8-Smax_kg    9-Smin_kg   10-S0_kg   11-ST_kg   12-DeployTime_s   13-ReserveCost_£_per_MW_h   14-eta_c   15-eta_d   16-StartupCost_£   17-CompressEnergy_MWh_per_kg   18-Hydrogen_market_price_Eur_per_kg
mpc.elec = [
4 2 100 10 0.058 0.8 1724.13 41379.31034 431.03448275862 8275.86 8275.86 0.2 36.68 0.9 0.9 998.03 0.00167 4;
4 2 100 10 0.058 0.8 1724.13 41379.31034 431.03448275862 8275.86 8275.86 0.2 36.68 0.9 0.9 998.03 0.00167 4;
4 2 100 10 0.058 0.8 1724.13 41379.31034 431.03448275862 8275.86 8275.86 0.2 36.68 0.9 0.9 998.03 0.00167 4;
4 2 100 10 0.058 0.8 1724.13 41379.31034 431.03448275862 8275.86 8275.86 0.2 36.68 0.9 0.9 998.03 0.00167 4;
4 2 100 10 0.058 0.8 1724.13 41379.31034 431.03448275862 8275.86 8275.86 0.2 36.68 0.9 0.9 998.03 0.00167 4;
4 2 100 10 0.058 0.8 1724.13 41379.31034 431.03448275862 8275.86 8275.86 0.2 36.68 0.9 0.9 998.03 0.00167 4;
4 2 100 10 0.058 0.8 1724.13 41379.31034 431.03448275862 8275.86 8275.86 0.2 36.68 0.9 0.9 998.03 0.00167 4;
4 2 100 10 0.058 0.8 1724.13 41379.31034 431.03448275862 8275.86 8275.86 0.2 36.68 0.9 0.9 998.03 0.00167 4;

4 2 200  20  0.058  0.83  3448.27  82758.62  862.07  16551.72  16551.72  0.2  36.68  0.9  0.9  998.03  0.00167  4;
4 2 200  20  0.058  0.83  3448.27  82758.62  862.07  16551.72  16551.72  0.2  36.68  0.9  0.9  998.03  0.00167  4;
4 2 200  20  0.058  0.83  3448.27  82758.62  862.07  16551.72  16551.72  0.2  36.68  0.9  0.9  998.03  0.00167  4;
4 2 200  20  0.058  0.83  3448.27  82758.62  862.07  16551.72  16551.72  0.2  36.68  0.9  0.9  998.03  0.00167  4;
4 2 200  20  0.058  0.83  3448.27  82758.62  862.07  16551.72  16551.72  0.2  36.68  0.9  0.9  998.03  0.00167  4;
4 2 200  20  0.058  0.83  3448.27  82758.62  862.07  16551.72  16551.72  0.2  36.68  0.9  0.9  998.03  0.00167  4;

4 2 500 50 0.058 0.9 8620.68 206896.55 2155.17 41379.31 41379.31 0.2 36.68 0.9 0.9 998.03 0.00167 4;
4 2 500 50 0.058 0.9 8620.68 206896.55 2155.17 41379.31 41379.31 0.2 36.68 0.9 0.9 998.03 0.00167 4;
4 2 500 50 0.058 0.9 8620.68 206896.55 2155.17 41379.31 41379.31 0.2 36.68 0.9 0.9 998.03 0.00167 4;
4 2 500 50 0.058 0.9 8620.68 206896.55 2155.17 41379.31 41379.31 0.2 36.68 0.9 0.9 998.03 0.00167 4;
4 2 500 50 0.058 0.9 8620.68 206896.55 2155.17 41379.31 41379.31 0.2 36.68 0.9 0.9 998.03 0.00167 4;
4 2 500 50 0.058 0.9 8620.68 206896.55 2155.17 41379.31 41379.31 0.2 36.68 0.9 0.9 998.03 0.00167 4;
];

%% BESS data (custom)
%  1-AC_bus   2-area   3-Pmax_MW   4-Emax_MWh   5-DODmax   6-eta_c   7-eta_d   8-E_init_MWh   9-E_final_MWh   10-DeployTime_s   11-ReserveCost_$_per_MW_h
mpc.bess = [
4 2 600 1400 0.793 0.9 0.9 290 290 0.2 36.68;
4 2 600 1400 0.793 0.9 0.9 290 290 0.2 36.68;
4 2 600 1400 0.793 0.9 0.9 290 290 0.2 36.68;
4 2 600 1400 0.793 0.9 0.9 290 290 0.2 36.68;
4 2 600 1400 0.793 0.9 0.9 290 290 0.2 36.68;
4 2 600 1400 0.793 0.9 0.9 290 290 0.2 36.68;
4 2 600 1400 0.793 0.9 0.9 290 290 0.2 36.68;
4 2 600 1400 0.793 0.9 0.9 290 290 0.2 36.68;
4 2 600 1400 0.793 0.9 0.9 290 290 0.2 36.68;
4 2 600 1400 0.793 0.9 0.9 290 290 0.2 36.68;
4 2 600 1400 0.793 0.9 0.9 290 290 0.2 36.68;
4 2 600 1400 0.793 0.9 0.9 290 290 0.2 36.68;
4 2 600 1400 0.793 0.9 0.9 290 290 0.2 36.68;
4 2 600 1400 0.793 0.9 0.9 290 290 0.2 36.68;
4 2 600 1400 0.793 0.9 0.9 290 290 0.2 36.68;
4 2 600 1400 0.793 0.9 0.9 290 290 0.2 36.68;
4 2 600 1400 0.793 0.9 0.9 290 290 0.2 36.68;
4 2 600 1400 0.793 0.9 0.9 290 290 0.2 36.68;
4 2 600 1400 0.793 0.9 0.9 290 290 0.2 36.68;
4 2 600 1400 0.793 0.9 0.9 290 290 0.2 36.68;
4 2 600 1400 0.793 0.9 0.9 290 290 0.2 36.68;
4 2 600 1400 0.793 0.9 0.9 290 290 0.2 36.68;
4 2 600 1400 0.793 0.9 0.9 290 290 0.2 36.68;
4 2 600 1400 0.793 0.9 0.9 290 290 0.2 36.68;
4 2 600 1400 0.793 0.9 0.9 290 290 0.2 36.68;
4 2 600 1400 0.793 0.9 0.9 290 290 0.2 36.68;
4 2 600 1400 0.793 0.9 0.9 290 290 0.2 36.68;
4 2 600 1400 0.793 0.9 0.9 290 290 0.2 36.68;
4 2 600 1400 0.793 0.9 0.9 290 290 0.2 36.68;
4 2 600 1400 0.793 0.9 0.9 290 290 0.2 36.68;
4 2 600 1400 0.793 0.9 0.9 290 290 0.2 36.68;
4 2 600 1400 0.793 0.9 0.9 290 290 0.2 36.68;
4 2 600 1400 0.793 0.9 0.9 290 290 0.2 36.68;
4 2 600 1400 0.793 0.9 0.9 290 290 0.2 36.68;
4 2 600 1400 0.793 0.9 0.9 290 290 0.2 36.68;
4 2 600 1400 0.793 0.9 0.9 290 290 0.2 36.68;
4 2 600 1400 0.793 0.9 0.9 290 290 0.2 36.68;
4 2 600 1400 0.793 0.9 0.9 290 290 0.2 36.68;
4 2 600 1400 0.793 0.9 0.9 290 290 0.2 36.68;
4 2 600 1400 0.793 0.9 0.9 290 290 0.2 36.68;


];

%mpc.total_installed_capacity=sum(mpc.reservoir(:,9))+sum(mpc.pump(:,9))+sum(mpc.nuclear(:,9))+sum(mpc.gas(:,9))+sum(mpc.biomass(:,9))+sum(mpc.oil(:,9))+mpc.wind+mpc.solar;


